
*** ChampSim Multicore Out-of-Order Simulator ***

Warmup Instructions: 0
Simulation Instructions: 100000000000
Number of CPUs: 1
LLC sets: 2048
LLC ways: 16
Off-chip DRAM Size: 4096 MB Channels: 1 Width: 64-bit Data Rate: 1600 MT/s

CPU 0 runs /scratch/cluster/matthewp/gap-g15/tc.trace.gz

Warmup complete CPU 0 instructions: 2 cycles: 16 (Simulation time: 0 hr 0 min 1 sec) 

*** Reached end of trace for Core: 0 Repeating trace: /scratch/cluster/matthewp/gap-g15/tc.trace.gz
