
*** ChampSim Multicore Out-of-Order Simulator ***

Warmup Instructions: 0
Simulation Instructions: 100000000
Number of CPUs: 1
LLC sets: 2048
LLC ways: 16
Off-chip DRAM Size: 4096 MB Channels: 1 Width: 64-bit Data Rate: 1600 MT/s

CPU 0 runs /scratch/cluster/akanksha/CRCRealTraces/hmmer_546B.trace.gz

Warmup complete CPU 0 instructions: 1 cycles: 8 (Simulation time: 0 hr 0 min 0 sec) 

Finished CPU 0 instructions: 100000000 cycles: 89102019 cumulative IPC: 1.12231 (Simulation time: 0 hr 8 min 48 sec) 

CPU 0 Branch Prediction Accuracy: 99.3694% MPKI: 0.24532

ChampSim completed all CPUs

Region of Interest Statistics

CPU 0 cumulative IPC: 1.12231 instructions: 100000000 cycles: 89102019
L1D TOTAL     ACCESS:   41783542  HIT:   41214957  MISS:     568585
L1D LOAD      ACCESS:   32656124  HIT:   32398410  MISS:     257714
L1D RFO       ACCESS:    9127418  HIT:    8816547  MISS:     310871
L1D PREFETCH  ACCESS:          0  HIT:          0  MISS:          0
L1D WRITEBACK ACCESS:          0  HIT:          0  MISS:          0
L1D PREFETCH  REQUESTED:          0  ISSUED:          0  FILLED:          0  USEFUL:          0  USELESS:          0
  ACCURACY:       -nan
L1I TOTAL     ACCESS:   26346406  HIT:   26345503  MISS:        903
L1I LOAD      ACCESS:   26346406  HIT:   26345503  MISS:        903
L1I RFO       ACCESS:          0  HIT:          0  MISS:          0
L1I PREFETCH  ACCESS:          0  HIT:          0  MISS:          0
L1I WRITEBACK ACCESS:          0  HIT:          0  MISS:          0
L1I PREFETCH  REQUESTED:          0  ISSUED:          0  FILLED:          0  USEFUL:          0  USELESS:          0
  ACCURACY:       -nan
L2C TOTAL     ACCESS:     882594  HIT:     543638  MISS:     338956
L2C LOAD      ACCESS:     258568  HIT:     226703  MISS:      31865
L2C RFO       ACCESS:     310871  HIT:       3923  MISS:     306948
L2C PREFETCH  ACCESS:          0  HIT:          0  MISS:          0
L2C WRITEBACK ACCESS:     313155  HIT:     313012  MISS:        143
L2C PREFETCH  REQUESTED:          0  ISSUED:          0  FILLED:          0  USEFUL:          0  USELESS:          0
  ACCURACY:       -nan
LLC TOTAL     ACCESS:     646840  HIT:     634048  MISS:      12792
LLC LOAD      ACCESS:      31865  HIT:      29873  MISS:       1992
LLC RFO       ACCESS:     306946  HIT:     296146  MISS:      10800
LLC PREFETCH  ACCESS:          0  HIT:          0  MISS:          0
LLC WRITEBACK ACCESS:     308029  HIT:     308029  MISS:          0
LLC PREFETCH  REQUESTED:          0  ISSUED:          0  FILLED:          0  USEFUL:          0  USELESS:          0
  ACCURACY:       -nan
DTLB TOTAL     ACCESS:   43171497  HIT:   43161918  MISS:       9579
DTLB LOAD      ACCESS:   31775167  HIT:   31770450  MISS:       4717
DTLB RFO       ACCESS:   11396330  HIT:   11391468  MISS:       4862
DTLB PREFETCH  ACCESS:          0  HIT:          0  MISS:          0
DTLB WRITEBACK ACCESS:          0  HIT:          0  MISS:          0
DTLB PREFETCH  REQUESTED:          0  ISSUED:          0  FILLED:          0  USEFUL:          0  USELESS:          0
  ACCURACY:       -nan
STLB TOTAL     ACCESS:       9759  HIT:       9474  MISS:        285
STLB LOAD      ACCESS:       4897  HIT:       4728  MISS:        169
STLB RFO       ACCESS:       4862  HIT:       4746  MISS:        116
STLB PREFETCH  ACCESS:          0  HIT:          0  MISS:          0
STLB WRITEBACK ACCESS:          0  HIT:          0  MISS:          0
STLB PREFETCH  REQUESTED:          0  ISSUED:          0  FILLED:          0  USEFUL:          0  USELESS:          0
  ACCURACY:       -nan
Major fault: 0 Minor fault: 285

DRAM Statistics
 CHANNEL 0
 RQ ROW_BUFFER_HIT:      11518  ROW_BUFFER_MISS:       1274
 DBUS_CONGESTED:        869
 WQ ROW_BUFFER_HIT:          0  ROW_BUFFER_MISS:          0  FULL:          0

 AVG_CONGESTED_CYCLE: 6

gzip: stdout: Broken pipe
