
*** ChampSim Multicore Out-of-Order Simulator ***

Warmup Instructions: 0
Simulation Instructions: 100000000000
Number of CPUs: 1
LLC sets: 2048
LLC ways: 16
Off-chip DRAM Size: 4096 MB Channels: 1 Width: 64-bit Data Rate: 1600 MT/s

CPU 0 runs /scratch/cluster/matthewp/gap-g17/pr.trace.gz

Warmup complete CPU 0 instructions: 1 cycles: 8 (Simulation time: 0 hr 0 min 0 sec) 

